OM4p5_CORE2_IAF_COBALT_abio_csf_mle200
1948 1 1 0 0 0
     # MOM6 ocean diagnostics files
"ocean_daily",            1, "days",   1, "days", "time"
"ocean_month_snap",       1, "months", 1, "days", "time"
"ocean_month",            1, "months", 1, "days", "time"
"ocean_month_z",          1, "months", 1, "days", "time"
"ocean_month_rho2",       1, "months", 1, "days", "time"
"ocean_annual",          12, "months", 1, "days", "time"
"ocean_annual_z",        12, "months", 1, "days", "time"
"ocean_annual_rho2",     12, "months", 1, "days", "time"
"ocean_scalar_month",     1, "months", 1, "days", "time"
"ocean_scalar_annual",   12, "months", 1, "days", "time"
"ocean_static",          -1, "months", 1, "days", "time" # ocean_static is a protected name. Do not change this line.
# Sections for CMIP6/OMIP
"ocean_Barents_opening",         1, "days",   1, "days", "time"
"ocean_Bering_Strait",           1, "days",   1, "days", "time"
"ocean_Davis_Strait",            1, "days",   1, "days", "time"
"ocean_Windward_Passage",        1, "days",   1, "days", "time"
"ocean_Denmark_Strait",          1, "days",   1, "days", "time"
"ocean_Drake_Passage",           1, "days",   1, "days", "time"
"ocean_English_Channel",         1, "days",   1, "days", "time"
"ocean_Faroe_Scotland",          1, "days",   1, "days", "time"
"ocean_Florida_Bahamas",         1, "days",   1, "days", "time"
"ocean_Fram_Strait",             1, "days",   1, "days", "time"
"ocean_Iceland_Faroe_V",         1, "days",   1, "days", "time"
"ocean_Iceland_Faroe_U",         1, "days",   1, "days", "time"
"ocean_Indonesian_Throughflow",  1, "days",   1, "days", "time"
"ocean_Mozambique_Channel",      1, "days",   1, "days", "time"
"ocean_Pacific_undercurrent",    1, "days",   1, "days", "time"
"ocean_Taiwan_Luzon",            1, "days",   1, "days", "time"
"ocean_Agulhas_section",         1, "days",   1, "days", "time"
"ocean_Gibraltar_Strait",        1, "days",   1, "days", "time"
"ocean_Iceland_Norway",          1, "days",   1, "days", "time"
# -----------------------------------------------------------------------------------------
# CMIP6/OMIP Table G1: static information
 "ocean_model", "areacello",   "areacello",   "ocean_static", "all", "none", "none", 2
 "ocean_model", "deptho",      "deptho",      "ocean_static", "all", "none", "none", 2
#"ocean_model", "basin",       "basin",       "ocean_static", "all", "none", "none", 2  # in /archive/gold/datasets/OM4_025/
 "ocean_model", "hfgeou",      "hfgeou",      "ocean_static", "all", "none", "none", 2  # for static geothermal heat
 "ocean_model", "sftof",       "sftof",       "ocean_static", "all", "none", "none", 2
# Extra static geometry data beyond CMIP6/OMIP Table 2.1
 "ocean_model", "Coriolis",    "Coriolis",    "ocean_static", "all", "none", "none", 2
 "ocean_model", "geolon",      "geolon",      "ocean_static", "all", "none", "none", 2
 "ocean_model", "geolat",      "geolat",      "ocean_static", "all", "none", "none", 2
 "ocean_model", "geolon_c",    "geolon_c",    "ocean_static", "all", "none", "none", 2
 "ocean_model", "geolat_c",    "geolat_c",    "ocean_static", "all", "none", "none", 2
 "ocean_model", "geolon_u",    "geolon_u",    "ocean_static", "all", "none", "none", 2
 "ocean_model", "geolat_u",    "geolat_u",    "ocean_static", "all", "none", "none", 2
 "ocean_model", "geolon_v",    "geolon_v",    "ocean_static", "all", "none", "none", 2
 "ocean_model", "geolat_v",    "geolat_v",    "ocean_static", "all", "none", "none", 2
 "ocean_model", "wet",         "wet",         "ocean_static", "all", "none", "none", 2
 "ocean_model", "wet_c",       "wet_c",       "ocean_static", "all", "none", "none", 2
 "ocean_model", "wet_u",       "wet_u",       "ocean_static", "all", "none", "none", 2
 "ocean_model", "wet_v",       "wet_v",       "ocean_static", "all", "none", "none", 2
 "ocean_model", "dxt",         "dxt",         "ocean_static", "all", "none", "none", 2
 "ocean_model", "dyt",         "dyt",         "ocean_static", "all", "none", "none", 2
 "ocean_model", "dxCu",        "dxCu",        "ocean_static", "all", "none", "none", 2
 "ocean_model", "dyCu",        "dyCu",        "ocean_static", "all", "none", "none", 2
 "ocean_model", "dxCv",        "dxCv",        "ocean_static", "all", "none", "none", 2
 "ocean_model", "dyCv",        "dyCv",        "ocean_static", "all", "none", "none", 2
 "ocean_model", "areacello_cu","areacello_cu","ocean_static", "all", "none", "none", 2
 "ocean_model", "areacello_cv","areacello_cv","ocean_static", "all", "none", "none", 2
 "ocean_model", "areacello_bu","areacello_bu","ocean_static", "all", "none", "none", 2
# -----------------------------------------------------------------------------------------
# CMIP6/OMIP Table H1: scalar fields such as tracers, cell mass/volume, sea level, MLD
# Generally save annuals, and sometimes monthly and daily.
 "ocean_model_z", "volcello",     "volcello",         "ocean_annual_z",      "all", "mean", "none",2 # Cell measure for 3d data
 "ocean_model_z", "volcello",     "volcello",         "ocean_month_z",       "all", "mean", "none",2 # Cell measure for 3d data
 "ocean_model_rho2", "volcello",  "volcello",         "ocean_annual_rho2",   "all", "mean", "none",2 # Cell measure for 3d data
 "ocean_model_rho2", "volcello",  "volcello",         "ocean_month_rho2",    "all", "mean", "none",2 # Cell measure for 3d data
 "ocean_model",   "volcello",     "volcello",         "ocean_annual",        "all", "mean", "none",2 # Cell measure for 3d data
#"ocean_model",   "volcello",     "volcello",         "ocean_month",         "all", "mean", "none",2 # Cell measure for 3d data
 "ocean_model",   "pbo",          "pbo",              "ocean_annual",        "all", "mean", "none",2
 "ocean_model",   "pbo",          "pbo",              "ocean_month",         "all", "mean", "none",2
 "ocean_model",   "pso",          "pso",              "ocean_annual",        "all", "mean", "none",2
 "ocean_model",   "pso",          "pso",              "ocean_month",         "all", "mean", "none",2
 "ocean_model",   "masscello",    "masscello",        "ocean_annual",        "all", "mean", "none",2
#"ocean_model",   "masscello",    "masscello",        "ocean_month",         "all", "mean", "none",2
 "ocean_model",   "masso",        "masso",            "ocean_scalar_month",  "all", "mean", "none",1  # global sum masscello
 "ocean_model",   "masso",        "masso",            "ocean_scalar_annual", "all", "mean", "none",1  # global sum masscello
 "ocean_model",   "thkcello",     "thkcello",         "ocean_annual",        "all", "mean", "none",2  # Only needed in native space a static field needs to be provided for CMIP6
 "ocean_model_rho2", "thkcello",  "thkcello",         "ocean_annual_rho2",   "all", "mean", "none",2  # Only needed in native space a static field needs to be provided for CMIP6
 "ocean_model_rho2", "thkcello",  "thkcello",         "ocean_month_rho2",    "all", "mean", "none",2  # Only needed in native space a static field needs to be provided for CMIP6
#"ocean_model",   "thkcello",     "thkcello",         "ocean_month",         "all", "mean", "none",2
 "ocean_model",   "volo",         "volo",             "ocean_scalar_month",  "all", "mean", "none",1  # global sum thkcello
 "ocean_model",   "volo",         "volo",             "ocean_scalar_annual", "all", "mean", "none",1  # global sum thkcello
 "ocean_model",   "zos",          "zos",              "ocean_annual",        "all", "mean", "none",2
 "ocean_model",   "zos",          "zos",              "ocean_month",         "all", "mean", "none",2
 "ocean_model",   "zos",          "zos",              "ocean_daily",         "all", "mean", "none",2
 "ocean_model",   "zossq",        "zossq",            "ocean_annual",        "all", "mean", "none",2
 "ocean_model",   "zossq",        "zossq",            "ocean_month",         "all", "mean", "none",2
#"ocean_model",   "zostoga",      "zostoga",          "ocean_month",         "all", "mean", "none",2  # to be done offline
 "ocean_model",   "thetao",       "thetao",           "ocean_annual",        "all", "mean", "none",2  # if use pre-TEOS10
#"ocean_model",   "thetao",       "thetao",           "ocean_month",         "all", "mean", "none",2  # if use pre-TEOS10
 "ocean_model_z", "thetao",       "thetao",           "ocean_annual_z",      "all", "mean", "none",2  # if use pre-TEOS10
 "ocean_model_z", "thetao",       "thetao",           "ocean_month_z",       "all", "mean", "none",2  # if use pre-TEOS10
 "ocean_model_z", "thetao_xyave", "thetao_xyave",     "ocean_annual_z",      "all", "mean", "none",2  # if use pre-TEOS10
 "ocean_model",   "thetaoga",     "thetaoga",         "ocean_scalar_month",  "all", "mean", "none",1  # global mean theta
 "ocean_model",   "thetaoga",     "thetaoga",         "ocean_scalar_annual", "all", "mean", "none",1  # global mean theta
#"ocean_model",   "bigthetao",    "bigthetao",        "ocean_annual",        "all", "mean", "none",2  # if use TEOS10
#"ocean_model",   "bigthetao",    "bigthetao",        "ocean_month",         "all", "mean", "none",2  # if use TEOS10
#"ocean_model",   "bigthetaoga",  "bigthetaoga",      "ocean_scalar_annual", "all", "mean", "none",1  # if use TEOS10
#"ocean_model",   "bigthetaoga",  "bigthetaoga",      "ocean_scalar_month",  "all", "mean", "none",1  # if use TEOS10
 "ocean_model",   "tos",          "tos",              "ocean_annual",        "all", "mean", "none",2
 "ocean_model",   "tos",          "tos",              "ocean_month",         "all", "mean", "none",2
 "ocean_model",   "tos",          "tos",              "ocean_daily",         "all", "mean", "none",2
 "ocean_model",   "tosga",        "tosga",            "ocean_scalar_annual", "all", "mean", "none",1
 "ocean_model",   "tosga",        "tosga",            "ocean_scalar_month",  "all", "mean", "none",1
 "ocean_model",   "tossq",        "tossq",            "ocean_annual",        "all", "mean", "none",2
 "ocean_model",   "tossq",        "tossq",            "ocean_month",         "all", "mean", "none",2
 "ocean_model",   "tossq",        "tossq",            "ocean_daily",         "all", "mean", "none",2
 "ocean_model",   "tob",          "tob",              "ocean_annual",        "all", "mean", "none",2
 "ocean_model",   "tob",          "tob",              "ocean_month",         "all", "mean", "none",2
 "ocean_model",   "so",           "so",               "ocean_annual",        "all", "mean", "none",2
#"ocean_model",   "so",           "so",               "ocean_month",         "all", "mean", "none",2
 "ocean_model_z", "so",           "so",               "ocean_annual_z",      "all", "mean", "none",2
 "ocean_model_z", "so",           "so",               "ocean_month_z",       "all", "mean", "none",2
 "ocean_model_z", "so_xyave",     "so_xyave",         "ocean_annual_z",      "all", "mean", "none",2
 "ocean_model",   "soga",         "soga",             "ocean_scalar_annual", "all", "mean", "none",1
 "ocean_model",   "soga",         "soga",             "ocean_scalar_month",  "all", "mean", "none",1
 "ocean_model",   "sos",          "sos",              "ocean_annual",        "all", "mean", "none",2
 "ocean_model",   "sos",          "sos",              "ocean_month",         "all", "mean", "none",2
 "ocean_model",   "sos",          "sos",              "ocean_daily",         "all", "mean", "none",2
 "ocean_model",   "sosga",        "sosga",            "ocean_scalar_annual", "all", "mean", "none",1
 "ocean_model",   "sosga",        "sosga",            "ocean_scalar_month",  "all", "mean", "none",1
 "ocean_model",   "sossq",        "sossq",            "ocean_annual",        "all", "mean", "none",2
 "ocean_model",   "sossq",        "sossq",            "ocean_month",         "all", "mean", "none",2
 "ocean_model",   "sossq",        "sossq",            "ocean_daily",         "all", "mean", "none",2
 "ocean_model",   "sob",          "sob",              "ocean_annual",        "all", "mean", "none",2
 "ocean_model",   "sob",          "sob",              "ocean_month",         "all", "mean", "none",2
 "ocean_model_z", "obvfsq",       "obvfsq",           "ocean_annual_z",      "all", "mean", "none",2
 "ocean_model_z", "obvfsq",       "obvfsq",           "ocean_month_z",       "all", "mean", "none",2
 "ocean_model_z", "agessc",       "agessc",           "ocean_annual_z",      "all", "mean", "none",2		
#"ocean_model",   "cfc11",        "cfc11",            "ocean_annual",        "all", "mean", "none",2  # get from generic tracer module
#"ocean_model",   "cfc12",        "cfc12",            "ocean_annual",        "all", "mean", "none",2  # get from generic tracer module
#"ocean_model",   "sf6",          "sf6",              "ocean_annual",        "all", "mean", "none",2  # get from generic tracer module
 "ocean_model",   "mlotst",       "mlotst",           "ocean_annual",        "all", "mean", "none",2
 "ocean_model",   "mlotst",       "mlotst",           "ocean_month",         "all", "mean", "none",2
 "ocean_model",   "mlotstsq",     "mlotstsq",         "ocean_annual",        "all", "mean", "none",2
 "ocean_model",   "mlotstsq",     "mlotstsq",         "ocean_month",         "all", "mean", "none",2
 "ocean_model",   "mlotst",       "mlotstmin",        "ocean_annual",        "all", "min",  "none",2
 "ocean_model",   "mlotst",       "mlotstmin",        "ocean_month",         "all", "min",  "none",2
 "ocean_model",   "mlotst",       "mlotstmax",        "ocean_annual",        "all", "max",  "none",2
 "ocean_model",   "mlotst",       "mlotstmax",        "ocean_month",         "all", "max",  "none",2
#"ocean_model",   "msftbarot",    "msftbarot",        "ocean_month",         "all", "mean", "none",2  # to be done offline
# -----------------------------------------------------------------------------------------
# CMIP6/OMIP Table I1: components of vector fields
# (umo,vmo)  =net mass transport from residual mean velocity (model resolved + SGS)
# (uhml,vhml)=parameterized mixed layer restratification mass transport
# (uhGM,vhGM)=parameterized eddy-induced mass transport from GM
# (T_adx_2d,T_ady_2d) = heat transport by residual mean advection (yet to code neutral diffusion diagnostic)
# Offline calculations needed for meridional overturning streamfunctions.
#"ocean_model",  "uo",           "uo",               "ocean_annual",       "all", "mean", "none",2
 "ocean_model_z","uo",           "uo",               "ocean_annual_z",     "all", "mean", "none",2
 "ocean_model_z","uo",           "uo",               "ocean_month_z",      "all", "mean", "none",2
#"ocean_model",  "uo",           "uo",               "ocean_month",        "all", "mean", "none",2
#"ocean_model",  "vo",           "vo",               "ocean_annual",       "all", "mean", "none",2
 "ocean_model_z","vo",           "vo",               "ocean_annual_z",     "all", "mean", "none",2
 "ocean_model_z","vo",           "vo",               "ocean_month_z",      "all", "mean", "none",2
#"ocean_model",  "vo",           "vo",               "ocean_month",        "all", "mean", "none",2
#"ocean_model",  "umo",          "umo",              "ocean_annual",       "all", "mean", "none",2
 "ocean_model_z","umo",          "umo",              "ocean_annual_z",     "all", "mean", "none",2
 "ocean_model_z","umo",          "umo",              "ocean_month_z",      "all", "mean", "none",2
#"ocean_model",  "vmo",          "vmo",              "ocean_annual",       "all", "mean", "none",2
 "ocean_model_z","vmo",          "vmo",              "ocean_annual_z",     "all", "mean", "none",2
 "ocean_model_z","vmo",          "vmo",              "ocean_month_z",      "all", "mean", "none",2
#"ocean_model",  "wmo",          "wmo",              "ocean_annual",       "all", "mean", "none",2  # calculated offline
#"ocean_model",  "wmo",          "wmo",              "ocean_month",        "all", "mean", "none",2  # calculated offline
#"ocean_model",  "uhml",         "uhml",             "ocean_annual",       "all", "mean", "none",2
 "ocean_model_z","uhml",         "uhml",             "ocean_annual_z",     "all", "mean", "none",2
#"ocean_model_z","uhml",         "uhml",             "ocean_month_z",      "all", "mean", "none",2
#"ocean_model",  "vhml",         "vhml",             "ocean_annual",       "all", "mean", "none",2
 "ocean_model_z","vhml",         "vhml",             "ocean_annual_z",     "all", "mean", "none",2
 "ocean_model_z","vhml",         "vhml",             "ocean_month_z",      "all", "mean", "none",2
#"ocean_model",  "uhGM",         "uhGM",             "ocean_annual",       "all", "mean", "none",2
#"ocean_model_z","uhGM",         "uhGM",             "ocean_annual_z",     "all", "mean", "none",2
#"ocean_model_z","uhGM",         "uhGM",             "ocean_month_z",      "all", "mean", "none",2
#"ocean_model",  "vhGM",         "vhGM",             "ocean_annual",       "all", "mean", "none",2
#"ocean_model_z","vhGM",         "vhGM",             "ocean_annual_z",     "all", "mean", "none",2
#"ocean_model_z","vhGM",         "vhGM",             "ocean_month_z",      "all", "mean", "none",2
 "ocean_model_z","uh",           "uh",               "ocean_annual_z",     "all", "mean", "none",2
 "ocean_model_z","vh",           "vh",               "ocean_annual_z",     "all", "mean", "none",2
 "ocean_model_z","T_adx",        "T_adx",            "ocean_annual_z",     "all", "mean", "none",2
 "ocean_model_z","T_ady",        "T_ady",            "ocean_annual_z",     "all", "mean", "none",2
 "ocean_model",  "T_adx_2d",     "T_adx_2d",         "ocean_month",        "all", "mean", "none",2
 "ocean_model",  "T_ady_2d",     "T_ady_2d",         "ocean_month",        "all", "mean", "none",2
 "ocean_model_z","S_adx",        "S_adx",            "ocean_annual_z",     "all", "mean", "none",2
 "ocean_model_z","S_ady",        "S_ady",            "ocean_annual_z",     "all", "mean", "none",2
 "ocean_model",  "S_adx_2d",     "S_adx_2d",         "ocean_month",        "all", "mean", "none",2
 "ocean_model",  "S_ady_2d",     "S_ady_2d",         "ocean_month",        "all", "mean", "none",2
#"ocean_model",  "ndiff_tracer_trans_x_2d_T","ndiff_tracer_trans_x_2d_T",  "ocean_month",  "all", "mean", "none",2
#"ocean_model",  "ndiff_tracer_trans_y_2d_T","ndiff_tracer_trans_y_2d_T",  "ocean_month",  "all", "mean", "none",2
#"ocean_model",  "ndiff_tracer_trans_x_2d_S","ndiff_tracer_trans_x_2d_S",  "ocean_month",  "all", "mean", "none",2
#"ocean_model",  "ndiff_tracer_trans_y_2d_S","ndiff_tracer_trans_y_2d_S",  "ocean_month",  "all", "mean", "none",2
# Density space diagnostics (not necessarily using CMIP names but needed to generate CMIP output in post-processing)
 "ocean_model_rho2","umo",       "umo",              "ocean_annual_rho2",  "all", "mean", "none",2
#"ocean_model_rho2","uhGM",      "uhGM",             "ocean_annual_rho2",  "all", "mean", "none",2
 "ocean_model_rho2","uhml",      "uhml",             "ocean_annual_rho2",  "all", "mean", "none",2
 "ocean_model_rho2","vmo",       "vmo",              "ocean_annual_rho2",  "all", "mean", "none",2
#"ocean_model_rho2","vhGM",      "vhGM",             "ocean_annual_rho2",  "all", "mean", "none",2
 "ocean_model_rho2","vhml",      "vhml",             "ocean_annual_rho2",  "all", "mean", "none",2
 "ocean_model_rho2","vmo",       "vmo",              "ocean_month_rho2",   "all", "mean", "none",2
#"ocean_model_rho2","vhGM",      "vhGM",             "ocean_month_rho2",   "all", "mean", "none",2
 "ocean_model_rho2","vhml",      "vhml",             "ocean_month_rho2",   "all", "mean", "none",2
# -----------------------------------------------------------------------------------------
# CMIP6/OMIP Table J1: in support of mass transport through straits
# net transport of mass through straits is either done offline using
# umo_2d and vmo_2d or via the Sections output just below.
 "ocean_model",  "umo_2d",       "umo_2d",      "ocean_annual",        "all", "mean", "none",2
 "ocean_model",  "vmo_2d",       "vmo_2d",      "ocean_annual",        "all", "mean", "none",2
 "ocean_model",  "umo_2d",       "umo_2d",      "ocean_month",         "all", "mean", "none",2
 "ocean_model",  "vmo_2d",       "vmo_2d",      "ocean_month",         "all", "mean", "none",2
# Sections for CMIP6/OMIP choke points Table J1
# A/ In bipolar Arctic, the lat/lon values are taken from the "nominal" grid values
# B/ OM4 goes from -300 to 60.  So longitudes must be set within this range.
# C/ Can use these sections for post-processing diagnostics to fill OMIP Table 2.4.
# Barents Opening (north-south section)
"ocean_model_z", "volcello", "volcello", "ocean_Barents_opening",    "all", "mean", "6. 6. 62. 80.2 -1 -1",2
"ocean_model_z", "thetao","thetao",  "ocean_Barents_opening",    "all", "mean", "6. 6. 62. 80.2 -1 -1",2
"ocean_model_z", "so",   "so",       "ocean_Barents_opening",    "all", "mean", "6. 6. 62. 80.2 -1 -1",2
"ocean_model_z", "umo",  "umo",      "ocean_Barents_opening",    "all", "mean", "6. 6. 62. 80.2 -1 -1",2
"ocean_model_z", "uo",   "uo",       "ocean_Barents_opening",    "all", "mean", "6. 6. 62. 80.2 -1 -1",2
# Bering Strait (east-west section)
"ocean_model_z", "volcello", "volcello", "ocean_Bering_Strait",    "all", "mean", "-171.4 -168.7  66.1 66.1 -1 -1",2
"ocean_model_z", "thetao","thetao",  "ocean_Bering_Strait",    "all", "mean", "-171.4 -168.7  66.1 66.1 -1 -1",2
"ocean_model_z", "so",   "so",       "ocean_Bering_Strait",    "all", "mean", "-171.4 -168.7  66.1 66.1 -1 -1",2
"ocean_model_z", "vmo",  "vmo",      "ocean_Bering_Strait",    "all", "mean", "-171.4 -168.7  66.1 66.1 -1 -1",2
"ocean_model_z", "vo",   "vo",       "ocean_Bering_Strait",    "all", "mean", "-171.4 -168.7  66.1 66.1 -1 -1",2
# Caribbean (east-west section, Cuba-Haiti) Windward Passage
"ocean_model_z", "volcello", "volcello", "ocean_Windward_Passage", "all", "mean", "-75.0 -72.5 19.96 19.96 -1 -1",2
"ocean_model_z", "thetao","thetao",  "ocean_Windward_Passage", "all", "mean", "-75.0 -72.5 19.96 19.96 -1 -1",2
"ocean_model_z", "so",   "so",       "ocean_Windward_Passage", "all", "mean", "-75.0 -72.5 19.96 19.96 -1 -1",2
"ocean_model_z", "vmo",  "vmo",      "ocean_Windward_Passage", "all", "mean", "-75.0 -72.5 19.96 19.96 -1 -1",2
"ocean_model_z", "vo",   "vo",       "ocean_Windward_Passage", "all", "mean", "-75.0 -72.5 19.96 19.96 -1 -1",2
# Approximate section to capture outflow of Arctic through Davis Strait (east-west section)
"ocean_model_z", "volcello", "volcello", "ocean_Davis_Strait", "all", "mean", "-65.0 -48.0  66.0 66.0 -1 -1",2
"ocean_model_z", "thetao","thetao",  "ocean_Davis_Strait", "all", "mean", "-65.0 -48.0  66.0 66.0 -1 -1",2
"ocean_model_z", "so",   "so",       "ocean_Davis_Strait", "all", "mean", "-65.0 -48.0  66.0 66.0 -1 -1",2
"ocean_model_z", "vmo",  "vmo",      "ocean_Davis_Strait", "all", "mean", "-65.0 -48.0  66.0 66.0 -1 -1",2
"ocean_model_z", "vo",   "vo",       "ocean_Davis_Strait", "all", "mean", "-65.0 -48.0  66.0 66.0 -1 -1",2
# Approximate section to capture flow across Denmark Strait (east-west section)
"ocean_model_z", "volcello", "volcello", "ocean_Denmark_Strait",   "all", "mean", "-42.5 -20. 65. 65. -1 -1",2
"ocean_model_z", "thetao","thetao",  "ocean_Denmark_Strait",   "all", "mean", "-42.5 -20. 65. 65. -1 -1",2
"ocean_model_z", "so",   "so",       "ocean_Denmark_Strait",   "all", "mean", "-42.5 -20. 65. 65. -1 -1",2
"ocean_model_z", "vmo",  "vmo",      "ocean_Denmark_Strait",   "all", "mean", "-42.5 -20. 65. 65. -1 -1",2
"ocean_model_z", "vo",   "vo",       "ocean_Denmark_Strait",   "all", "mean", "-42.5 -20. 65. 65. -1 -1",2
# Approximate section to capture flow through Drake Passage (north-south section)
"ocean_model_z", "volcello", "volcello", "ocean_Drake_Passage",    "all", "mean", "-70. -70. -71. -54.5 -1 -1",2
"ocean_model_z", "thetao","thetao",  "ocean_Drake_Passage",    "all", "mean", "-70. -70. -71. -54.5 -1 -1",2
"ocean_model_z", "so",   "so",       "ocean_Drake_Passage",    "all", "mean", "-70. -70. -71. -54.5 -1 -1",2
"ocean_model_z", "umo",  "umo",      "ocean_Drake_Passage",    "all", "mean", "-70. -70. -71. -54.5 -1 -1",2
"ocean_model_z", "uo",   "uo",       "ocean_Drake_Passage",    "all", "mean", "-70. -70. -71. -54.5 -1 -1",2
# English channel flow (north-south section)
"ocean_model_z", "volcello", "volcello", "ocean_English_Channel",  "all", "mean", "2.16 2.16  50.8  51.2 -1 -1",2
"ocean_model_z", "thetao","thetao",  "ocean_English_Channel",  "all", "mean", "2.16 2.16  50.8  51.2 -1 -1",2
"ocean_model_z", "so",   "so",       "ocean_English_Channel",  "all", "mean", "2.16 2.16  50.8  51.2 -1 -1",2
"ocean_model_z", "umo",  "umo",      "ocean_English_Channel",  "all", "mean", "2.16 2.16  50.8  51.2 -1 -1",2
"ocean_model_z", "uo",   "uo",       "ocean_English_Channel",  "all", "mean", "2.16 2.16  50.8  51.2 -1 -1",2
# Faroe-Scotland flow (north-south section)
"ocean_model_z", "volcello", "volcello", "ocean_Faroe_Scotland",  "all", "mean", "-6.3 -6.3  58. 61.5 -1 -1",2
"ocean_model_z", "thetao","thetao",  "ocean_Faroe_Scotland",  "all", "mean", "-6.3 -6.3  58. 61.5 -1 -1",2
"ocean_model_z", "so",   "so",       "ocean_Faroe_Scotland",  "all", "mean", "-6.3 -6.3  58. 61.5 -1 -1",2
"ocean_model_z", "umo",  "umo",      "ocean_Faroe_Scotland",  "all", "mean", "-6.3 -6.3  58. 61.5 -1 -1",2
"ocean_model_z", "uo",   "uo",       "ocean_Faroe_Scotland",  "all", "mean", "-6.3 -6.3  58. 61.5 -1 -1",2
# Florida-Bahamas Strait (east-west section)
"ocean_model_z", "volcello", "volcello", "ocean_Florida_Bahamas",  "all", "mean", "-80.5 -77.8  25. 25. -1 -1",2
"ocean_model_z", "thetao","thetao",  "ocean_Florida_Bahamas",  "all", "mean", "-80.5 -77.8  25. 25. -1 -1",2
"ocean_model_z", "so",   "so",       "ocean_Florida_Bahamas",  "all", "mean", "-80.5 -77.8  25. 25. -1 -1",2
"ocean_model_z", "vmo",  "vmo",      "ocean_Florida_Bahamas",  "all", "mean", "-80.5 -77.8  25. 25. -1 -1",2
"ocean_model_z", "vo",   "vo",       "ocean_Florida_Bahamas",  "all", "mean", "-80.5 -77.8  25. 25. -1 -1",2
# Fram Strait (east-west section)
"ocean_model_z", "volcello", "volcello", "ocean_Fram_Strait",  "all", "mean", "-22. 0.0  81.2 81.2 -1 -1",2
"ocean_model_z", "thetao","thetao",  "ocean_Fram_Strait",  "all", "mean", "-22. 0.0  81.2 81.2 -1 -1",2
"ocean_model_z", "so",   "so",       "ocean_Fram_Strait",  "all", "mean", "-22. 0.0  81.2 81.2 -1 -1",2
"ocean_model_z", "vmo",  "vmo",      "ocean_Fram_Strait",  "all", "mean", "-22. 0.0  81.2 81.2 -1 -1",2
"ocean_model_z", "vo",   "vo",       "ocean_Fram_Strait",  "all", "mean", "-22. 0.0  81.2 81.2 -1 -1",2
# Gibraltar Strait (north-south section)
"ocean_model_z", "volcello", "volcello", "ocean_Gibraltar_Strait", "all", "mean", "-5. -5. 35.8 36.2 -1 -1",2
"ocean_model_z", "thetao","thetao",  "ocean_Gibraltar_Strait", "all", "mean", "-5. -5. 35.8 36.2 -1 -1",2
"ocean_model_z", "so",   "so",       "ocean_Gibraltar_Strait", "all", "mean", "-5. -5. 35.8 36.2 -1 -1",2
"ocean_model_z", "umo",  "umo",      "ocean_Gibraltar_Strait", "all", "mean", "-5. -5. 35.8 36.2 -1 -1",2
"ocean_model_z", "uo",   "uo",       "ocean_Gibraltar_Strait", "all", "mean", "-5. -5. 35.8 36.2 -1 -1",2
# Iceland-Faroe flow: 1st part of zig-zag for flow moving north/south; specific settings for OM4
"ocean_model_z", "volcello", "volcello", "ocean_Iceland_Faroe_V", "all", "mean", "-17.89 -6. 62.25 62.25 -1 -1",2
"ocean_model_z", "thetao", "thetao", "ocean_Iceland_Faroe_V", "all", "mean", "-17.89 -6. 62.25 62.25 -1 -1",2
"ocean_model_z", "so",   "so",       "ocean_Iceland_Faroe_V", "all", "mean", "-17.89 -6. 62.25 62.25 -1 -1",2
"ocean_model_z", "vmo",  "vmo",      "ocean_Iceland_Faroe_V", "all", "mean", "-17.89 -6. 62.25 62.25 -1 -1",2
"ocean_model_z", "vo",   "vo",       "ocean_Iceland_Faroe_V", "all", "mean", "-17.89 -6. 62.25 62.25 -1 -1",2
# Iceland-Faroe flow: 2nd part of zig-zag for flow moving east/west; specific settings for OM4
"ocean_model_z", "volcello", "volcello", "ocean_Iceland_Faroe_U", "all", "mean", "-17.74 -17.74  62.31 63.6 -1 -1",2
"ocean_model_z", "thetao", "thetao", "ocean_Iceland_Faroe_U", "all", "mean", "-17.74 -17.74  62.31 63.6 -1 -1",2
"ocean_model_z", "so",   "so",       "ocean_Iceland_Faroe_U", "all", "mean", "-17.74 -17.74  62.31 63.6 -1 -1",2
"ocean_model_z", "umo",  "umo",      "ocean_Iceland_Faroe_U", "all", "mean", "-17.74 -17.74  62.31 63.6 -1 -1",2
"ocean_model_z", "uo",   "uo",       "ocean_Iceland_Faroe_U", "all", "mean", "-17.74 -17.74  62.31 63.6 -1 -1",2
# Indonesian Throughflow (east-west section): settings in spirit of OMIP "bulk" transport calculation
"ocean_model_z", "volcello", "volcello", "ocean_Indonesian_Throughflow",  "all", "mean", "-246.0 -220.0  -8.1 -8.1 -1 -1",2
"ocean_model_z", "thetao", "thetao", "ocean_Indonesian_Throughflow",  "all", "mean", "-246.0 -220.0  -8.1 -8.1 -1 -1",2
"ocean_model_z", "so",   "so",       "ocean_Indonesian_Throughflow",  "all", "mean", "-246.0 -220.0  -8.1 -8.1 -1 -1",2
"ocean_model_z", "vmo",  "vmo",      "ocean_Indonesian_Throughflow",  "all", "mean", "-246.0 -220.0  -8.1 -8.1 -1 -1",2
"ocean_model_z", "vo",   "vo",       "ocean_Indonesian_Throughflow",  "all", "mean", "-246.0 -220.0  -8.1 -8.1 -1 -1",2
# Mozambique Channel (east-west section)
"ocean_model_z", "volcello", "volcello", "ocean_Mozambique_Channel",  "all", "mean", "39. 46. -16. -16. -1 -1",2
"ocean_model_z", "thetao", "thetao", "ocean_Mozambique_Channel",  "all", "mean", "39. 46. -16. -16. -1 -1",2
"ocean_model_z", "so",   "so",       "ocean_Mozambique_Channel",  "all", "mean", "39. 46. -16. -16. -1 -1",2
"ocean_model_z", "vmo",  "vmo",      "ocean_Mozambique_Channel",  "all", "mean", "39. 46. -16. -16. -1 -1",2
"ocean_model_z", "vo",   "vo",       "ocean_Mozambique_Channel",  "all", "mean", "39. 46. -16. -16. -1 -1",2
# Pacific Equatorial Undercurrent (north-south section)
"ocean_model_z", "volcello", "volcello", "ocean_Pacific_undercurrent",  "all", "mean", "-155. -155. -2. 2. -1 -1",2
"ocean_model_z", "thetao", "thetao", "ocean_Pacific_undercurrent",  "all", "mean", "-155. -155. -2. 2. -1 -1",2